8
HEAT OF FORMATION = -29.81843 KCAL = -124.76032 KJ; FOR REACTION COORDINATE = 0.00000 DEG
C                0.0000      0.0000      0.0000   -0.133028
C                1.5128      0.0000      0.0000   -0.132044
H                1.8920      1.0520      0.0000    0.109096
Cl              -0.7779     -0.7986      1.3429   -0.084097
H               -0.3758     -0.5173     -0.9184    0.108208
H               -0.3790      1.0523      0.0000    0.108921
Cl               2.2868     -0.7758      1.3607   -0.086390
H                1.8922     -0.5305     -0.9084    0.109334
8
HEAT OF FORMATION = -30.02325 KCAL = -125.61727 KJ; FOR REACTION COORDINATE = 10.00000 DEG
C                0.0000      0.0000      0.0000   -0.131747
C                1.5142      0.0000      0.0000   -0.133447
H                1.8989      1.0499      0.0000    0.108920
Cl              -0.7683     -0.5097      1.4843   -0.087021
H               -0.3828     -0.6852     -0.7953    0.110133
H               -0.3703      1.0387     -0.1831    0.109423
Cl               2.2805     -0.8084      1.3441   -0.084720
H                1.8899     -0.5159     -0.9188    0.108458
8
HEAT OF FORMATION = -30.58525 KCAL = -127.96869 KJ; FOR REACTION COORDINATE = 20.00000 DEG
C                0.0000      0.0000      0.0000   -0.130619
C                1.5110      0.0000      0.0000   -0.134451
H                1.9047      1.0460      0.0000    0.110333
Cl              -0.7441     -0.2053      1.5707   -0.091847
H               -0.3968     -0.8218     -0.6431    0.112630
H               -0.3683      0.9925     -0.3612    0.110252
Cl               2.2722     -0.8425      1.3241   -0.083668
H                1.8724     -0.5064     -0.9315    0.107369
8
HEAT OF FORMATION = -31.31578 KCAL = -131.02521 KJ; FOR REACTION COORDINATE = 30.00000 DEG
C                0.0000      0.0000      0.0000   -0.130535
C                1.5104      0.0000      0.0000   -0.134443
H                1.9084      1.0443      0.0000    0.112120
Cl              -0.7224      0.0873      1.5927   -0.094896
H               -0.4037     -0.9225     -0.4804    0.114460
H               -0.3698      0.9141     -0.5277    0.110821
Cl               2.2505     -0.8544      1.3287   -0.085263
H                1.8697     -0.5081     -0.9318    0.107738
8
HEAT OF FORMATION = -32.04264 KCAL = -134.06642 KJ; FOR REACTION COORDINATE = 40.00000 DEG
C                0.0000      0.0000      0.0000   -0.130762
C                1.5079      0.0000      0.0000   -0.133926
H                1.9109      1.0421      0.0000    0.114283
Cl              -0.7062      0.3544      1.5633   -0.096772
H               -0.4054     -0.9918     -0.3131    0.115883
H               -0.3703      0.8084     -0.6783    0.111472
Cl               2.2294     -0.8479      1.3452   -0.088903
H                1.8673     -0.5204     -0.9246    0.108724
8
HEAT OF FORMATION = -32.62819 KCAL = -136.51633 KJ; FOR REACTION COORDINATE = 50.00000 DEG
C                0.0000      0.0000      0.0000   -0.131329
C                1.5073      0.0000      0.0000   -0.133395
H                1.9154      1.0401      0.0000    0.116301
Cl              -0.6922      0.6116      1.4868   -0.097337
H               -0.4077     -1.0298     -0.1441    0.117401
H               -0.3717      0.6780     -0.8080    0.111327
Cl               2.2069     -0.8346      1.3662   -0.092739
H                1.8739     -0.5307     -0.9152    0.109771
8
HEAT OF FORMATION = -32.99207 KCAL = -138.03881 KJ; FOR REACTION COORDINATE = 60.00000 DEG
C                0.0000      0.0000      0.0000   -0.131716
C                1.5063      0.0000      0.0000   -0.132593
H                1.9143      1.0403      0.0000    0.118541
Cl              -0.6805      0.8499      1.3703   -0.098316
H               -0.4081     -1.0393      0.0300    0.119029
H               -0.3720      0.5276     -0.9138    0.111526
Cl               2.1929     -0.8197      1.3853   -0.097357
H                1.8803     -0.5427     -0.9038    0.110886
8
HEAT OF FORMATION = -33.10554 KCAL = -138.51357 KJ; FOR REACTION COORDINATE = 70.00000 DEG
C                0.0000      0.0000      0.0000   -0.132751
C                1.5067      0.0000      0.0000   -0.131722
H                1.9139      1.0406      0.0000    0.121040
Cl              -0.6754      1.0638      1.2148   -0.099688
H               -0.4088     -1.0198      0.2038    0.120639
H               -0.3738      0.3605     -0.9905    0.111430
Cl               2.1753     -0.8012      1.4066   -0.100968
H                1.8816     -0.5558     -0.8945    0.112021
8
HEAT OF FORMATION = -32.99848 KCAL = -138.06564 KJ; FOR REACTION COORDINATE = 80.00000 DEG
C                0.0000      0.0000      0.0000   -0.132837
C                1.5083      0.0000      0.0000   -0.130740
H                1.9249      1.0369      0.0000    0.123406
Cl              -0.6744      1.2462      1.0272   -0.100822
H               -0.4088     -0.9723      0.3725    0.122170
H               -0.3789      0.1826     -1.0357    0.111687
Cl               2.1700     -0.7887      1.4191   -0.105332
H                1.8889     -0.5680     -0.8841    0.112467
8
HEAT OF FORMATION = -32.73590 KCAL = -136.96702 KJ; FOR REACTION COORDINATE = 90.00000 DEG
C                0.0000      0.0000      0.0000   -0.133146
C                1.5077      0.0000      0.0000   -0.129436
H                1.9325      1.0328      0.0000    0.125533
Cl              -0.6739      1.3992      0.8057   -0.101006
H               -0.4063     -0.8998      0.5265    0.123547
H               -0.3835      0.0000     -1.0496    0.111611
Cl               2.1651     -0.7750      1.4326   -0.110079
H                1.8940     -0.5814     -0.8725    0.112976
8
HEAT OF FORMATION = -32.44897 KCAL = -135.76648 KJ; FOR REACTION COORDINATE = 100.00000 DEG
C                0.0000      0.0000      0.0000   -0.133541
C                1.5095      0.0000      0.0000   -0.129778
H                1.9284      1.0361      0.0000    0.126142
Cl              -0.6754      1.5141      0.5577   -0.102374
H               -0.4132     -0.7928      0.6730    0.124639
H               -0.3851     -0.1823     -1.0336    0.111553
Cl               2.1703     -0.7769      1.4279   -0.109503
H                1.9002     -0.5707     -0.8772    0.112862
8
HEAT OF FORMATION = -32.24994 KCAL = -134.93377 KJ; FOR REACTION COORDINATE = 110.00000 DEG
C                0.0000      0.0000      0.0000   -0.131327
C                1.5102      0.0000      0.0000   -0.129871
H                1.9327      1.0345      0.0000    0.127604
Cl              -0.6628      1.6044      0.2463   -0.107540
H               -0.4213     -0.6410      0.8133    0.127105
H               -0.3908     -0.3581     -0.9839    0.111768
Cl               2.1689     -0.7931      1.4208   -0.109992
H                1.9021     -0.5653     -0.8806    0.112252
8
HEAT OF FORMATION = -32.18210 KCAL = -134.64991 KJ; FOR REACTION COORDINATE = 120.00000 DEG
C                0.0000      0.0000      0.0000   -0.131986
C                1.5118      0.0000      0.0000   -0.129974
H                1.9338      1.0348      0.0000    0.127505
Cl              -0.6627      1.6210     -0.0393   -0.106884
H               -0.4194     -0.4930      0.9115    0.126948
H               -0.3936     -0.5229     -0.9057    0.111603
Cl               2.1668     -0.8037      1.4156   -0.109174
H                1.9031     -0.5598     -0.8843    0.111961
8
HEAT OF FORMATION = -32.31415 KCAL = -135.20239 KJ; FOR REACTION COORDINATE = 130.00000 DEG
C                0.0000      0.0000      0.0000   -0.130543
C                1.5123      0.0000      0.0000   -0.130616
H                1.9387      1.0341      0.0000    0.127417
Cl              -0.6448      1.5961     -0.3307   -0.108157
H               -0.4159     -0.3129      0.9887    0.127070
H               -0.3940     -0.6715     -0.8002    0.112789
Cl               2.1585     -0.8062      1.4193   -0.110017
H                1.9078     -0.5613     -0.8800    0.112056
8
HEAT OF FORMATION = -32.64514 KCAL = -136.58726 KJ; FOR REACTION COORDINATE = 140.00000 DEG
C                0.0000      0.0000      0.0000   -0.129215
C                1.5109      0.0000      0.0000   -0.131715
H                1.9310      1.0357      0.0000    0.125912
Cl              -0.6297      1.5105     -0.6344   -0.110989
H               -0.4223     -0.1154      1.0276    0.126501
H               -0.4017     -0.7983     -0.6698    0.113674
Cl               2.1534     -0.8153      1.4117   -0.106719
H                1.9060     -0.5492     -0.8897    0.112551
8
HEAT OF FORMATION = -33.04825 KCAL = -138.27387 KJ; FOR REACTION COORDINATE = 150.00000 DEG
C                0.0000      0.0000      0.0000   -0.127749
C                1.5096      0.0000      0.0000   -0.131371
H                1.9276      1.0362      0.0000    0.124600
Cl              -0.6232      1.3806     -0.8931   -0.112835
H               -0.4202      0.0757      1.0315    0.125621
H               -0.4013     -0.9014     -0.5205    0.115106
Cl               2.1343     -0.8124      1.4220   -0.107458
H                1.9140     -0.5554     -0.8805    0.114086
8
HEAT OF FORMATION = -33.43347 KCAL = -139.88565 KJ; FOR REACTION COORDINATE = 160.00000 DEG
C                0.0000      0.0000      0.0000   -0.129770
C                1.5090      0.0000      0.0000   -0.129826
H                1.9288      1.0351      0.0000    0.123081
Cl              -0.6169      1.2292     -1.0878   -0.108586
H               -0.4161      0.2335      1.0099    0.122638
H               -0.4071     -0.9775     -0.3558    0.116340
Cl               2.1325     -0.8042      1.4306   -0.109109
H                1.9138     -0.5606     -0.8772    0.115231
8
HEAT OF FORMATION = -33.72710 KCAL = -141.11420 KJ; FOR REACTION COORDINATE = 170.00000 DEG
C                0.0000      0.0000      0.0000   -0.130514
C                1.5090      0.0000      0.0000   -0.130864
H                1.9223      1.0388      0.0000    0.120939
Cl              -0.6164      1.0305     -1.2764   -0.106848
H               -0.4061      0.3955      0.9621    0.120143
H               -0.4101     -1.0240     -0.1806    0.117622
Cl               2.1276     -0.8047      1.4293   -0.106995
H                1.9148     -0.5539     -0.8811    0.116516
8
HEAT OF FORMATION = -33.83570 KCAL = -141.56858 KJ; FOR REACTION COORDINATE = 180.00000 DEG
C                0.0000      0.0000      0.0000   -0.129296
C                1.5075      0.0000      0.0000   -0.129902
H                1.9097      1.0423      0.0000    0.118706
Cl              -0.6092      0.7889     -1.4460   -0.109615
H               -0.4078      0.5665      0.8717    0.119511
H               -0.4106     -1.0380      0.0000    0.119360
Cl               2.1112     -0.7722      1.4550   -0.108989
H                1.9274     -0.5654     -0.8659    0.120225
8
HEAT OF FORMATION = -33.73439 KCAL = -141.14469 KJ; FOR REACTION COORDINATE = 190.00000 DEG
C                0.0000      0.0000      0.0000   -0.130292
C                1.5082      0.0000      0.0000   -0.127981
H                1.9197      1.0375      0.0000    0.118096
Cl              -0.6119      0.5380     -1.5538   -0.108558
H               -0.4070      0.7050      0.7653    0.117511
H               -0.4134     -1.0222      0.1802    0.121412
Cl               2.1065     -0.7657      1.4650   -0.112020
H                1.9255     -0.5783     -0.8588    0.121832
8
HEAT OF FORMATION = -33.45572 KCAL = -139.97874 KJ; FOR REACTION COORDINATE = 200.00000 DEG
C                0.0000      0.0000      0.0000   -0.131765
C                1.5085      0.0000      0.0000   -0.128864
H                1.9130      1.0412      0.0000    0.116156
Cl              -0.6232      0.2791     -1.6137   -0.106159
H               -0.4001      0.8200      0.6457    0.115068
H               -0.4147     -0.9749      0.3548    0.122653
Cl               2.1209     -0.7542      1.4624   -0.110520
H                1.9237     -0.5751     -0.8618    0.123431
8
HEAT OF FORMATION = -33.05269 KCAL = -138.29244 KJ; FOR REACTION COORDINATE = 210.00000 DEG
C                0.0000      0.0000      0.0000   -0.132106
C                1.5115      0.0000      0.0000   -0.128517
H                1.9110      1.0425      0.0000    0.114878
Cl              -0.6316      0.0089     -1.6341   -0.105835
H               -0.3942      0.9191      0.4994    0.113200
H               -0.4199     -0.8962      0.5174    0.124418
Cl               2.1305     -0.7424      1.4656   -0.111390
H                1.9314     -0.5799     -0.8561    0.125352
8
HEAT OF FORMATION = -32.63418 KCAL = -136.54141 KJ; FOR REACTION COORDINATE = 220.00000 DEG
C                0.0000      0.0000      0.0000   -0.132012
C                1.5103      0.0000      0.0000   -0.127593
H                1.9110      1.0419      0.0000    0.113890
Cl              -0.6359     -0.2610     -1.6115   -0.106053
H               -0.3928      0.9914      0.3359    0.111912
H               -0.4232     -0.7918      0.6644    0.126385
Cl               2.1336     -0.7374      1.4697   -0.113563
H                1.9360     -0.5798     -0.8527    0.127035
8
HEAT OF FORMATION = -32.32109 KCAL = -135.23142 KJ; FOR REACTION COORDINATE = 230.00000 DEG
C                0.0000      0.0000      0.0000   -0.131924
C                1.5115      0.0000      0.0000   -0.128926
H                1.9110      1.0431      0.0000    0.113009
Cl              -0.6518     -0.5640     -1.5250   -0.106290
H               -0.3919      1.0357      0.1562    0.112045
H               -0.4229     -0.6650      0.7925    0.126617
Cl               2.1527     -0.7511      1.4523   -0.112070
H                1.9383     -0.5721     -0.8594    0.127538
8
HEAT OF FORMATION = -32.18903 KCAL = -134.67891 KJ; FOR REACTION COORDINATE = 240.00000 DEG
C                0.0000      0.0000      0.0000   -0.130860
C                1.5114      0.0000      0.0000   -0.130493
H                1.9057      1.0455      0.0000    0.111860
Cl              -0.6544     -0.8201     -1.4039   -0.107933
H               -0.3902      1.0470     -0.0386    0.111822
H               -0.4231     -0.5173      0.8960    0.127673
Cl               2.1692     -0.7660      1.4353   -0.109572
H                1.9355     -0.5530     -0.8735    0.127504
8
HEAT OF FORMATION = -32.23807 KCAL = -134.88407 KJ; FOR REACTION COORDINATE = 250.00000 DEG
C                0.0000      0.0000      0.0000   -0.129441
C                1.5110      0.0000      0.0000   -0.131833
H                1.8975      1.0494      0.0000    0.111392
Cl              -0.6552     -1.0490     -1.2461   -0.110192
H               -0.3871      1.0235     -0.2285    0.111394
H               -0.4298     -0.3524      0.9681    0.127929
Cl               2.1798     -0.7712      1.4230   -0.106690
H                1.9319     -0.5452     -0.8806    0.127440
8
HEAT OF FORMATION = -32.45512 KCAL = -135.79221 KJ; FOR REACTION COORDINATE = 260.00000 DEG
C                0.0000      0.0000      0.0000   -0.129706
C                1.5089      0.0000      0.0000   -0.130975
H                1.9022      1.0468      0.0000    0.112105
Cl              -0.6632     -1.2492     -1.0389   -0.108334
H               -0.3811      0.9730     -0.3989    0.111446
H               -0.4273     -0.1791      1.0156    0.127194
Cl               2.1772     -0.7803      1.4224   -0.107923
H                1.9277     -0.5472     -0.8801    0.126192
8
HEAT OF FORMATION = -32.75249 KCAL = -137.03643 KJ; FOR REACTION COORDINATE = 270.00000 DEG
C                0.0000      0.0000      0.0000   -0.131558
C                1.5084      0.0000      0.0000   -0.131999
H                1.8922      1.0492      0.0000    0.111753
Cl              -0.6673     -1.4082     -0.8002   -0.105612
H               -0.3847      0.8890     -0.5581    0.111795
H               -0.4159      0.0000      1.0378    0.125115
Cl               2.1749     -0.7818      1.4173   -0.104036
H                1.9219     -0.5430     -0.8852    0.124542
8
HEAT OF FORMATION = -33.00538 KCAL = -138.09453 KJ; FOR REACTION COORDINATE = 280.00000 DEG
C                0.0000      0.0000      0.0000   -0.131344
C                1.5083      0.0000      0.0000   -0.132337
H                1.8843      1.0535      0.0000    0.111276
Cl              -0.6694     -1.5273     -0.5366   -0.103696
H               -0.3799      0.7804     -0.7039    0.112174
H               -0.4108      0.1804      1.0232    0.122906
Cl               2.1831     -0.7811      1.4142   -0.101519
H                1.9200     -0.5357     -0.8902    0.122539
8
HEAT OF FORMATION = -33.10805 KCAL = -138.52407 KJ; FOR REACTION COORDINATE = 290.00000 DEG
C                0.0000      0.0000      0.0000   -0.131598
C                1.5064      0.0000      0.0000   -0.132273
H                1.8814      1.0537      0.0000    0.111554
Cl              -0.6693     -1.5968     -0.2686   -0.101776
H               -0.3776      0.6469     -0.8297    0.112122
H               -0.4092      0.3556      0.9771    0.121189
Cl               2.1788     -0.7705      1.4210   -0.100265
H                1.9162     -0.5440     -0.8858    0.121047
8
HEAT OF FORMATION = -32.98045 KCAL = -137.99020 KJ; FOR REACTION COORDINATE = 300.00000 DEG
C                0.0000      0.0000      0.0000   -0.132505
C                1.5055      0.0000      0.0000   -0.130822
H                1.8815      1.0534      0.0000    0.112039
Cl              -0.6718     -1.6171     -0.0094   -0.097982
H               -0.3755      0.5087     -0.9213    0.110951
H               -0.4123      0.5188      0.8986    0.118957
Cl               2.1719     -0.7474      1.4383   -0.100911
H                1.9154     -0.5609     -0.8728    0.120273
8
HEAT OF FORMATION = -32.62441 KCAL = -136.50054 KJ; FOR REACTION COORDINATE = 310.00000 DEG
C                0.0000      0.0000      0.0000   -0.134232
C                1.5070      0.0000      0.0000   -0.129774
H                1.8772      1.0551      0.0000    0.111903
Cl              -0.7033     -1.5834      0.2172   -0.091524
H               -0.3627      0.3676     -0.9939    0.108981
H               -0.4054      0.6693      0.7976    0.116959
Cl               2.1866     -0.7318      1.4425   -0.101082
H                1.9204     -0.5653     -0.8685    0.118769
8
HEAT OF FORMATION = -32.02803 KCAL = -134.00527 KJ; FOR REACTION COORDINATE = 320.00000 DEG
C                0.0000      0.0000      0.0000   -0.135191
C                1.5078      0.0000      0.0000   -0.129910
H                1.8776      1.0553      0.0000    0.112055
Cl              -0.7218     -1.5175      0.4652   -0.087304
H               -0.3547      0.2009     -1.0449    0.108063
H               -0.4014      0.7989      0.6704    0.115051
Cl               2.2034     -0.7125      1.4440   -0.100126
H                1.9177     -0.5752     -0.8633    0.117362
8
HEAT OF FORMATION = -31.31220 KCAL = -131.01023 KJ; FOR REACTION COORDINATE = 330.00000 DEG
C                0.0000      0.0000      0.0000   -0.134551
C                1.5100      0.0000      0.0000   -0.129783
H                1.8776      1.0565      0.0000    0.111051
Cl              -0.7371     -1.4108      0.7155   -0.085561
H               -0.3577      0.0278     -1.0619    0.107320
H               -0.4029      0.9025      0.5210    0.112560
Cl               2.2298     -0.7205      1.4267   -0.095987
H                1.9149     -0.5626     -0.8739    0.114952
8
HEAT OF FORMATION = -30.58493 KCAL = -127.96734 KJ; FOR REACTION COORDINATE = 340.00000 DEG
C                0.0000      0.0000      0.0000   -0.134329
C                1.5112      0.0000      0.0000   -0.130735
H                1.8791      1.0567      0.0000    0.110020
Cl              -0.7605     -1.2438      0.9579   -0.083836
H               -0.3637     -0.1567     -1.0477    0.107482
H               -0.3933      0.9836      0.3580    0.110212
Cl               2.2567     -0.7296      1.4048   -0.091390
H                1.9087     -0.5496     -0.8869    0.112576
8
HEAT OF FORMATION = -30.03263 KCAL = -125.65653 KJ; FOR REACTION COORDINATE = 350.00000 DEG
C                0.0000      0.0000      0.0000   -0.133546
C                1.5123      0.0000      0.0000   -0.131328
H                1.8854      1.0546      0.0000    0.109437
Cl              -0.7739     -1.0367      1.1712   -0.083640
H               -0.3691     -0.3432     -0.9998    0.107821
H               -0.3864      1.0334      0.1822    0.109181
Cl               2.2773     -0.7506      1.3816   -0.088585
H                1.9015     -0.5399     -0.8974    0.110660
8
HEAT OF FORMATION = -29.81493 KCAL = -124.74568 KJ; FOR REACTION COORDINATE = 360.00000 DEG
C                0.0000      0.0000      0.0000   -0.132057
C                1.5123      0.0000      0.0000   -0.132016
H                1.8959      1.0504      0.0000    0.109215
Cl              -0.7742     -0.7764      1.3604   -0.086076
H               -0.3815     -0.5320     -0.9067    0.109654
H               -0.3763      1.0539      0.0000    0.109296
Cl               2.2843     -0.7783      1.3626   -0.087306
H                1.8958     -0.5303     -0.9061    0.109290
