8
HEAT OF FORMATION = -7.92983 KCAL = -33.17841 KJ; FOR REACTION COORDINATE = 0.00000 DEG
C                0.0000      0.0000      0.0000   -0.154895
C                1.5282      0.0000      0.0000   -0.156308
H                1.8665      1.0684      0.0000    0.146339
Cl              -0.7410     -0.7427      1.3922   -0.024519
Br              -0.8010     -0.7241     -1.6121    0.032491
H               -0.3446      1.0658      0.0000    0.146693
Cl               2.2456     -0.6932      1.4357   -0.030150
Br               2.3571     -0.7619     -1.5720    0.040348
8
HEAT OF FORMATION = -8.47020 KCAL = -35.43932 KJ; FOR REACTION COORDINATE = 10.00000 DEG
C                0.0000      0.0000      0.0000   -0.156656
C                1.5264      0.0000      0.0000   -0.155200
H                1.8738      1.0656      0.0000    0.147264
Cl              -0.6958     -0.3725      1.5642   -0.036853
Br              -0.8348     -1.0955     -1.3525    0.045197
H               -0.3415      1.0519     -0.1855    0.148079
Cl               2.2684     -0.7836      1.3641   -0.020015
Br               2.3037     -0.6784     -1.6467    0.028184
8
HEAT OF FORMATION = -9.66249 KCAL = -40.42785 KJ; FOR REACTION COORDINATE = 20.00000 DEG
C                0.0000      0.0000      0.0000   -0.157460
C                1.5220      0.0000      0.0000   -0.155838
H                1.8785      1.0625      0.0000    0.149265
Cl              -0.6626     -0.0578      1.6237   -0.042203
Br              -0.8218     -1.3532     -1.0979    0.048689
H               -0.3522      1.0004     -0.3641    0.150606
Cl               2.2573     -0.8302      1.3353   -0.016077
Br               2.2640     -0.6457     -1.6778    0.023018
8
HEAT OF FORMATION = -11.02165 KCAL = -46.11460 KJ; FOR REACTION COORDINATE = 30.00000 DEG
C                0.0000      0.0000      0.0000   -0.157597
C                1.5202      0.0000      0.0000   -0.156484
H                1.8854      1.0592      0.0000    0.151054
Cl              -0.6422      0.2038      1.6187   -0.042614
Br              -0.7961     -1.5317     -0.8571    0.047596
H               -0.3595      0.9192     -0.5307    0.152503
Cl               2.2435     -0.8309      1.3412   -0.016367
Br               2.2316     -0.6680     -1.6819    0.021909
8
HEAT OF FORMATION = -12.17718 KCAL = -50.94931 KJ; FOR REACTION COORDINATE = 40.00000 DEG
C                0.0000      0.0000      0.0000   -0.158421
C                1.5194      0.0000      0.0000   -0.157035
H                1.8895      1.0573      0.0000    0.153168
Cl              -0.6360      0.4403      1.5698   -0.040332
Br              -0.7772     -1.6553     -0.6140    0.045328
H               -0.3557      0.8135     -0.6826    0.153183
Cl               2.2155     -0.8163      1.3673   -0.019744
Br               2.2176     -0.7233     -1.6616    0.023853
8
HEAT OF FORMATION = -12.99957 KCAL = -54.39020 KJ; FOR REACTION COORDINATE = 50.00000 DEG
C                0.0000      0.0000      0.0000   -0.158401
C                1.5185      0.0000      0.0000   -0.157433
H                1.8928      1.0557      0.0000    0.155069
Cl              -0.6216      0.6862      1.4839   -0.040911
Br              -0.7579     -1.7422     -0.3420    0.043431
H               -0.3702      0.6791     -0.8093    0.155044
Cl               2.1978     -0.7970      1.3902   -0.021696
Br               2.2061     -0.7551     -1.6480    0.024898
8
HEAT OF FORMATION = -13.34137 KCAL = -55.82031 KJ; FOR REACTION COORDINATE = 60.00000 DEG
C                0.0000      0.0000      0.0000   -0.158938
C                1.5181      0.0000      0.0000   -0.157513
H                1.8959      1.0542      0.0000    0.157069
Cl              -0.6090      0.9277      1.3519   -0.043211
Br              -0.7574     -1.7735     -0.0397    0.043984
H               -0.3781      0.5270     -0.9128    0.156901
Cl               2.1902     -0.7797      1.4011   -0.021625
Br               2.2003     -0.7788     -1.6390    0.023332
8
HEAT OF FORMATION = -13.21272 KCAL = -55.28202 KJ; FOR REACTION COORDINATE = 70.00000 DEG
C                0.0000      0.0000      0.0000   -0.158550
C                1.5178      0.0000      0.0000   -0.157791
H                1.9015      1.0523      0.0000    0.159435
Cl              -0.6029      1.1306      1.1904   -0.043728
Br              -0.7625     -1.7559      0.2441    0.043146
H               -0.3828      0.3598     -0.9886    0.158078
Cl               2.1810     -0.7436      1.4292   -0.025935
Br               2.2088     -0.8312     -1.6058    0.025345
8
HEAT OF FORMATION = -12.68566 KCAL = -53.07680 KJ; FOR REACTION COORDINATE = 80.00000 DEG
C                0.0000      0.0000      0.0000   -0.157921
C                1.5190      0.0000      0.0000   -0.158960
H                1.9006      1.0532      0.0000    0.160538
Cl              -0.6066      1.2773      1.0252   -0.040748
Br              -0.7644     -1.7111      0.4809    0.038146
H               -0.3839      0.1827     -1.0364    0.159499
Cl               2.1872     -0.6994      1.4527   -0.028775
Br               2.2109     -0.8620     -1.5840    0.028222
8
HEAT OF FORMATION = -11.86202 KCAL = -49.63068 KJ; FOR REACTION COORDINATE = 90.00000 DEG
C                0.0000      0.0000      0.0000   -0.158473
C                1.5204      0.0000      0.0000   -0.157138
H                1.9055      1.0530      0.0000    0.161930
Cl              -0.6124      1.4191      0.8044   -0.039067
Br              -0.7832     -1.6160      0.7273    0.035532
H               -0.3920      0.0000     -1.0492    0.160399
Cl               2.2032     -0.6896      1.4514   -0.029507
Br               2.2171     -0.8689     -1.5811    0.026323
8
HEAT OF FORMATION = -10.96192 KCAL = -45.86467 KJ; FOR REACTION COORDINATE = 100.00000 DEG
C                0.0000      0.0000      0.0000   -0.158301
C                1.5222      0.0000      0.0000   -0.156131
H                1.9052      1.0535      0.0000    0.163681
Cl              -0.5952      1.5644      0.5059   -0.046153
Br              -0.8305     -1.4148      1.0242    0.040285
H               -0.3920     -0.1822     -1.0333    0.161267
Cl               2.2217     -0.6989      1.4358   -0.027568
Br               2.2097     -0.8540     -1.5956    0.022921
8
HEAT OF FORMATION = -10.24202 KCAL = -42.85259 KJ; FOR REACTION COORDINATE = 110.00000 DEG
C                0.0000      0.0000      0.0000   -0.156942
C                1.5241      0.0000      0.0000   -0.155325
H                1.9118      1.0523      0.0000    0.164144
Cl              -0.5911      1.6338      0.2096   -0.047643
Br              -0.8483     -1.1977      1.2619    0.040381
H               -0.3928     -0.3590     -0.9862    0.162010
Cl               2.2466     -0.7212      1.4122   -0.026097
Br               2.2080     -0.8259     -1.6154    0.019473
8
HEAT OF FORMATION = -9.93117 KCAL = -41.55200 KJ; FOR REACTION COORDINATE = 120.00000 DEG
C                0.0000      0.0000      0.0000   -0.156760
C                1.5244      0.0000      0.0000   -0.154763
H                1.9125      1.0525      0.0000    0.164574
Cl              -0.5764      1.6510     -0.0891   -0.048923
Br              -0.8596     -0.9336      1.4618    0.039783
H               -0.4017     -0.5230     -0.9059    0.162922
Cl               2.2573     -0.7400      1.3932   -0.023957
Br               2.1920     -0.8105     -1.6334    0.017123
8
HEAT OF FORMATION = -10.17096 KCAL = -42.55529 KJ; FOR REACTION COORDINATE = 130.00000 DEG
C                0.0000      0.0000      0.0000   -0.155648
C                1.5238      0.0000      0.0000   -0.153799
H                1.9198      1.0475      0.0000    0.164202
Cl              -0.5682      1.6103     -0.3961   -0.049558
Br              -0.8552     -0.6278      1.6185    0.040040
H               -0.4031     -0.6710     -0.7996    0.162992
Cl               2.2546     -0.7859      1.3669   -0.022109
Br               2.1839     -0.7686     -1.6611    0.013879
8
HEAT OF FORMATION = -10.85069 KCAL = -45.39927 KJ; FOR REACTION COORDINATE = 140.00000 DEG
C                0.0000      0.0000      0.0000   -0.156374
C                1.5221      0.0000      0.0000   -0.153623
H                1.9225      1.0463      0.0000    0.164339
Cl              -0.5618      1.5005     -0.7177   -0.051339
Br              -0.8339     -0.2671      1.7204    0.042551
H               -0.4058     -0.7995     -0.6709    0.163522
Cl               2.2419     -0.8366      1.3398   -0.020783
Br               2.1768     -0.7361     -1.6813    0.011707
8
HEAT OF FORMATION = -11.65474 KCAL = -48.76343 KJ; FOR REACTION COORDINATE = 150.00000 DEG
C                0.0000      0.0000      0.0000   -0.155743
C                1.5208      0.0000      0.0000   -0.154126
H                1.9271      1.0434      0.0000    0.164174
Cl              -0.5601      1.3613     -0.9590   -0.050437
Br              -0.8182      0.0424      1.7485    0.041541
H               -0.4062     -0.9031     -0.5214    0.163303
Cl               2.2060     -0.8325      1.3651   -0.025239
Br               2.1917     -0.7583     -1.6612    0.016525
8
HEAT OF FORMATION = -12.38625 KCAL = -51.82409 KJ; FOR REACTION COORDINATE = 160.00000 DEG
C                0.0000      0.0000      0.0000   -0.156516
C                1.5192      0.0000      0.0000   -0.153886
H                1.9223      1.0451      0.0000    0.163775
Cl              -0.5775      1.1873     -1.1531   -0.044929
Br              -0.7816      0.3158      1.7413    0.036399
H               -0.4102     -0.9787     -0.3562    0.163195
Cl               2.1907     -0.8159      1.3828   -0.027194
Br               2.1859     -0.7958     -1.6464    0.019155
8
HEAT OF FORMATION = -12.89822 KCAL = -53.96617 KJ; FOR REACTION COORDINATE = 170.00000 DEG
C                0.0000      0.0000      0.0000   -0.155503
C                1.5195      0.0000      0.0000   -0.155232
H                1.9254      1.0423      0.0000    0.163387
Cl              -0.5933      1.0106     -1.2991   -0.039487
Br              -0.7450      0.5834      1.6910    0.031315
H               -0.4065     -1.0261     -0.1809    0.163384
Cl               2.1651     -0.8156      1.3983   -0.030186
Br               2.2067     -0.8053     -1.6297    0.022321
8
HEAT OF FORMATION = -13.07237 KCAL = -54.69478 KJ; FOR REACTION COORDINATE = 180.00000 DEG
C                0.0000      0.0000      0.0000   -0.155266
C                1.5181      0.0000      0.0000   -0.156334
H                1.9235      1.0434      0.0000    0.163581
Cl              -0.6083      0.8004     -1.4265   -0.034636
Br              -0.7190      0.8381      1.5964    0.026876
H               -0.4059     -1.0413      0.0000    0.163380
Cl               2.1361     -0.7832      1.4341   -0.036176
Br               2.2343     -0.8542     -1.5859    0.028574
8
HEAT OF FORMATION = -12.88108 KCAL = -53.89442 KJ; FOR REACTION COORDINATE = 190.00000 DEG
C                0.0000      0.0000      0.0000   -0.154311
C                1.5187      0.0000      0.0000   -0.156510
H                1.9239      1.0415      0.0000    0.163518
Cl              -0.6385      0.5821     -1.5158   -0.031189
Br              -0.6875      1.0790      1.4636    0.021943
H               -0.4028     -1.0269      0.1811    0.163996
Cl               2.1052     -0.7500      1.4706   -0.041477
Br               2.2604     -0.8870     -1.5508    0.034031
8
HEAT OF FORMATION = -12.39324 KCAL = -51.85332 KJ; FOR REACTION COORDINATE = 200.00000 DEG
C                0.0000      0.0000      0.0000   -0.153754
C                1.5192      0.0000      0.0000   -0.156364
H                1.9273      1.0421      0.0000    0.163584
Cl              -0.6680      0.3320     -1.5715   -0.025687
Br              -0.6682      1.2844      1.3032    0.016422
H               -0.4063     -0.9785      0.3562    0.163769
Cl               2.0922     -0.7267      1.4876   -0.044440
Br               2.2952     -0.8992     -1.5264    0.036470
8
HEAT OF FORMATION = -11.66123 KCAL = -48.79060 KJ; FOR REACTION COORDINATE = 210.00000 DEG
C                0.0000      0.0000      0.0000   -0.154118
C                1.5209      0.0000      0.0000   -0.156192
H                1.9287      1.0422      0.0000    0.163511
Cl              -0.6984      0.0460     -1.5900   -0.023099
Br              -0.6568      1.4872      1.0722    0.014781
H               -0.4013     -0.9051      0.5225    0.163874
Cl               2.0829     -0.7024      1.5058   -0.048554
Br               2.3311     -0.9100     -1.4998    0.039798
8
HEAT OF FORMATION = -10.85105 KCAL = -45.40077 KJ; FOR REACTION COORDINATE = 220.00000 DEG
C                0.0000      0.0000      0.0000   -0.153679
C                1.5237      0.0000      0.0000   -0.155880
H                1.9298      1.0436      0.0000    0.163483
Cl              -0.7105     -0.2349     -1.5681   -0.022523
Br              -0.6564      1.6460      0.8045    0.013511
H               -0.4045     -0.7996      0.6709    0.164459
Cl               2.0778     -0.6889      1.5189   -0.052685
Br               2.3659     -0.9013     -1.4844    0.043314
8
HEAT OF FORMATION = -10.19879 KCAL = -42.67172 KJ; FOR REACTION COORDINATE = 230.00000 DEG
C                0.0000      0.0000      0.0000   -0.153133
C                1.5242      0.0000      0.0000   -0.155993
H                1.9282      1.0447      0.0000    0.163639
Cl              -0.7304     -0.5094     -1.4918   -0.021017
Br              -0.6538      1.7626      0.5094    0.011392
H               -0.3993     -0.6728      0.8018    0.164769
Cl               2.0825     -0.6874      1.5178   -0.054058
Br               2.3799     -0.8875     -1.4852    0.044401
8
HEAT OF FORMATION = -9.92006 KCAL = -41.50552 KJ; FOR REACTION COORDINATE = 240.00000 DEG
C                0.0000      0.0000      0.0000   -0.152987
C                1.5259      0.0000      0.0000   -0.156156
H                1.9281      1.0452      0.0000    0.163357
Cl              -0.7349     -0.7684     -1.3721   -0.019653
Br              -0.6546      1.8248      0.1862    0.010506
H               -0.3954     -0.5245      0.9085    0.165005
Cl               2.0954     -0.7082      1.5021   -0.053243
Br               2.3877     -0.8478     -1.5078    0.043171
8
HEAT OF FORMATION = -10.24084 KCAL = -42.84766 KJ; FOR REACTION COORDINATE = 250.00000 DEG
C                0.0000      0.0000      0.0000   -0.154698
C                1.5247      0.0000      0.0000   -0.157527
H                1.9177      1.0493      0.0000    0.162020
Cl              -0.7224     -1.0793     -1.1620   -0.026089
Br              -0.6804      1.8030     -0.2221    0.018969
H               -0.3880     -0.3598      0.9885    0.164234
Cl               2.1130     -0.7494      1.4686   -0.048393
Br               2.3763     -0.7812     -1.5502    0.041484
8
HEAT OF FORMATION = -10.96329 KCAL = -45.87040 KJ; FOR REACTION COORDINATE = 260.00000 DEG
C                0.0000      0.0000      0.0000   -0.155453
C                1.5216      0.0000      0.0000   -0.158395
H                1.9137      1.0499      0.0000    0.161541
Cl              -0.7021     -1.2928     -0.9369   -0.027992
Br              -0.6888      1.7208     -0.5656    0.022179
H               -0.3869     -0.1827      1.0362    0.163462
Cl               2.1222     -0.7901      1.4360   -0.043289
Br               2.3459     -0.7408     -1.5876    0.037948
8
HEAT OF FORMATION = -11.87250 KCAL = -49.67453 KJ; FOR REACTION COORDINATE = 270.00000 DEG
C                0.0000      0.0000      0.0000   -0.157434
C                1.5213      0.0000      0.0000   -0.157894
H                1.9141      1.0495      0.0000    0.160836
Cl              -0.6859     -1.4450     -0.6972   -0.028259
Br              -0.6909      1.5876     -0.8619    0.025366
H               -0.3812      0.0000      1.0547    0.162223
Cl               2.1235     -0.7904      1.4349   -0.042073
Br               2.3095     -0.7543     -1.6004    0.037234
8
HEAT OF FORMATION = -12.68723 KCAL = -53.08338 KJ; FOR REACTION COORDINATE = 280.00000 DEG
C                0.0000      0.0000      0.0000   -0.157949
C                1.5183      0.0000      0.0000   -0.158894
H                1.9021      1.0522      0.0000    0.159246
Cl              -0.6720     -1.5393     -0.4654   -0.026804
Br              -0.6853      1.4275     -1.1101    0.025240
H               -0.3847      0.1827      1.0363    0.160949
Cl               2.1247     -0.7714      1.4433   -0.041229
Br               2.2916     -0.7735     -1.5946    0.039442
8
HEAT OF FORMATION = -13.22447 KCAL = -55.33117 KJ; FOR REACTION COORDINATE = 290.00000 DEG
C                0.0000      0.0000      0.0000   -0.157658
C                1.5175      0.0000      0.0000   -0.159017
H                1.9012      1.0524      0.0000    0.158490
Cl              -0.6652     -1.5955     -0.2154   -0.025177
Br              -0.6816      1.2331     -1.3284    0.024733
H               -0.3832      0.3600      0.9891    0.159297
Cl               2.1211     -0.7522      1.4562   -0.041741
Br               2.2750     -0.8141     -1.5794    0.041072
8
HEAT OF FORMATION = -13.35248 KCAL = -55.86677 KJ; FOR REACTION COORDINATE = 300.00000 DEG
C                0.0000      0.0000      0.0000   -0.157675
C                1.5170      0.0000      0.0000   -0.159054
H                1.8969      1.0534      0.0000    0.157020
Cl              -0.6676     -1.6073      0.0388   -0.023528
Br              -0.6803      1.0094     -1.5067    0.025049
H               -0.3798      0.5267      0.9123    0.157440
Cl               2.1231     -0.7195      1.4744   -0.042531
Br               2.2730     -0.8454     -1.5610    0.043279
8
HEAT OF FORMATION = -13.00830 KCAL = -54.42671 KJ; FOR REACTION COORDINATE = 310.00000 DEG
C                0.0000      0.0000      0.0000   -0.157236
C                1.5174      0.0000      0.0000   -0.159015
H                1.8903      1.0563      0.0000    0.155479
Cl              -0.6815     -1.5742      0.2823   -0.020802
Br              -0.6843      0.7759     -1.6404    0.023971
H               -0.3750      0.6777      0.8076    0.155182
Cl               2.1313     -0.6849      1.4897   -0.042973
Br               2.2832     -0.8703     -1.5402    0.045394
8
HEAT OF FORMATION = -12.20253 KCAL = -51.05537 KJ; FOR REACTION COORDINATE = 320.00000 DEG
C                0.0000      0.0000      0.0000   -0.155742
C                1.5174      0.0000      0.0000   -0.158997
H                1.8871      1.0570      0.0000    0.154348
Cl              -0.7035     -1.5028      0.5117   -0.017256
Br              -0.6904      0.5389     -1.7364    0.021260
H               -0.3679      0.8101      0.6798    0.153108
Cl               2.1407     -0.6495      1.5048   -0.044582
Br               2.2998     -0.8978     -1.5124    0.047862
8
HEAT OF FORMATION = -11.01724 KCAL = -46.09614 KJ; FOR REACTION COORDINATE = 330.00000 DEG
C                0.0000      0.0000      0.0000   -0.155743
C                1.5197      0.0000      0.0000   -0.158003
H                1.8812      1.0591      0.0000    0.152790
Cl              -0.7142     -1.4045      0.7258   -0.014817
Br              -0.6971      0.2755     -1.7961    0.019556
H               -0.3674      0.9171      0.5295    0.152166
Cl               2.1515     -0.6127      1.5199   -0.046034
Br               2.3209     -0.9240     -1.4877    0.050085
8
HEAT OF FORMATION = -9.64981 KCAL = -40.37479 KJ; FOR REACTION COORDINATE = 340.00000 DEG
C                0.0000      0.0000      0.0000   -0.154718
C                1.5230      0.0000      0.0000   -0.157349
H                1.8771      1.0647      0.0000    0.151263
Cl              -0.7396     -1.2492      0.9493   -0.014057
Br              -0.7256     -0.0114     -1.8084    0.019567
H               -0.3592      0.9971      0.3629    0.149746
Cl               2.1772     -0.6065      1.5123   -0.044010
Br               2.3490     -0.9101     -1.4842    0.049558
8
HEAT OF FORMATION = -8.46735 KCAL = -35.42739 KJ; FOR REACTION COORDINATE = 350.00000 DEG
C                0.0000      0.0000      0.0000   -0.154741
C                1.5265      0.0000      0.0000   -0.157259
H                1.8676      1.0684      0.0000    0.148017
Cl              -0.7424     -1.0094      1.2079   -0.020650
Br              -0.7732     -0.3875     -1.7397    0.028115
H               -0.3503      1.0480      0.1848    0.147508
Cl               2.2201     -0.6340      1.4794   -0.037325
Br               2.3655     -0.8435     -1.5178    0.046335
8
HEAT OF FORMATION = -7.96409 KCAL = -33.32174 KJ; FOR REACTION COORDINATE = 360.00000 DEG
C                0.0000      0.0000      0.0000   -0.155864
C                1.5278      0.0000      0.0000   -0.155442
H                1.8693      1.0682      0.0000    0.146661
Cl              -0.7276     -0.7062      1.4202   -0.027735
Br              -0.8195     -0.7558     -1.5841    0.037122
H               -0.3404      1.0686      0.0000    0.146530
Cl               2.2550     -0.7063      1.4212   -0.028219
Br               2.3470     -0.7598     -1.5831    0.036947
