6
HEAT OF FORMATION = -52.47729 KCAL = -219.56499 KJ; FOR REACTION COORDINATE = 2.80000 ANGSTROMS
C                0.1319     -0.4077      0.0000   -0.183207
H                1.2399     -0.4077      0.0000    0.126138
Br              -0.4696      1.4519      0.0000   -0.225979
Cl               0.9935     -3.0718      0.0000   -0.969227
H               -0.2648     -0.8943      0.9130    0.126137
H               -0.2648     -0.8943     -0.9130    0.126139
6
HEAT OF FORMATION = -51.29980 KCAL = -214.63838 KJ; FOR REACTION COORDINATE = 2.60000 ANGSTROMS
C                0.1391     -0.4803      0.0000   -0.140572
H                1.2451     -0.4803      0.0000    0.122616
Br              -0.4119      1.4228      0.0000   -0.285145
Cl               0.8621     -2.9778      0.0000   -0.942132
H               -0.2857     -0.9235      0.9201    0.122617
H               -0.2857     -0.9235     -0.9201    0.122617
6
HEAT OF FORMATION = -50.02801 KCAL = -209.31720 KJ; FOR REACTION COORDINATE = 2.50000 ANGSTROMS
C                0.1372     -0.5239      0.0000   -0.109659
H                1.2418     -0.5239      0.0000    0.119644
Br              -0.3703      1.4143      0.0000   -0.328561
Cl               0.7705     -2.9424      0.0000   -0.920713
H               -0.3088     -0.9299      0.9254    0.119644
H               -0.3088     -0.9299     -0.9254    0.119644
6
HEAT OF FORMATION = -48.26670 KCAL = -201.94787 KJ; FOR REACTION COORDINATE = 2.40000 ANGSTROMS
C                0.1293     -0.5736      0.0000   -0.073058
H                1.2323     -0.5736      0.0000    0.115852
Br              -0.3178      1.4102      0.0000   -0.383383
Cl               0.6569     -2.9148      0.0000   -0.891116
H               -0.3423     -0.9284      0.9319    0.115852
H               -0.3423     -0.9284     -0.9319    0.115852
6
HEAT OF FORMATION = -46.09918 KCAL = -192.87898 KJ; FOR REACTION COORDINATE = 2.30000 ANGSTROMS
C                0.1096     -0.6342      0.0000   -0.029215
H                1.2106     -0.6342      0.0000    0.111156
Br              -0.2442      1.4133      0.0000   -0.456144
Cl               0.5011     -2.9006      0.0000   -0.848107
H               -0.3931     -0.9113      0.9396    0.111155
H               -0.3931     -0.9113     -0.9396    0.111155
6
HEAT OF FORMATION = -43.80275 KCAL = -183.27071 KJ; FOR REACTION COORDINATE = 2.20000 ANGSTROMS
C                0.0743     -0.7053      0.0000    0.012610
H                1.1737     -0.7053      0.0000    0.106560
Br              -0.1496      1.4208      0.0000   -0.545876
Cl               0.3047     -2.8932      0.0000   -0.786415
H               -0.4573     -0.8771      0.9469    0.106560
H               -0.4573     -0.8771     -0.9469    0.106560
6
HEAT OF FORMATION = -41.95115 KCAL = -175.52361 KJ; FOR REACTION COORDINATE = 2.10000 ANGSTROMS
C                0.0072     -0.8010      0.0000    0.043980
H                1.1053     -0.8010      0.0000    0.104232
Br              -0.0130      1.4382      0.0000   -0.665042
Cl               0.0262     -2.9009      0.0000   -0.691636
H               -0.5416     -0.8159      0.9509    0.104233
H               -0.5416     -0.8159     -0.9509    0.104233
6
HEAT OF FORMATION = -41.48489 KCAL = -173.57277 KJ; FOR REACTION COORDINATE = 2.05000 ANGSTROMS
C               -0.0397     -0.8595      0.0000    0.046643
H                1.0587     -0.8595      0.0000    0.105048
Br               0.0670      1.4497      0.0000   -0.731154
Cl              -0.1344     -2.9073      0.0000   -0.630633
H               -0.5854     -0.7834      0.9502    0.105048
H               -0.5854     -0.7834     -0.9502    0.105048
6
HEAT OF FORMATION = -41.64389 KCAL = -174.23803 KJ; FOR REACTION COORDINATE = 2.00000 ANGSTROMS
C               -0.1289     -0.9683      0.0000    0.032080
H                0.9703     -0.9683      0.0000    0.109684
Br               0.1979      1.4860      0.0000   -0.826688
Cl              -0.3929     -2.9508      0.0000   -0.534446
H               -0.6498     -0.7526      0.9436    0.109685
H               -0.6498     -0.7526     -0.9436    0.109685
6
HEAT OF FORMATION = -43.00693 KCAL = -179.94100 KJ; FOR REACTION COORDINATE = 1.95000 ANGSTROMS
C               -0.2516     -1.1484      0.0000   -0.008745
H                0.8502     -1.1484      0.0000    0.115349
Br               0.3423      1.5620      0.0000   -0.919804
Cl              -0.6690     -3.0532      0.0000   -0.417498
H               -0.7268     -0.8028      0.9321    0.115349
H               -0.7268     -0.8028     -0.9321    0.115349
6
HEAT OF FORMATION = -44.66381 KCAL = -186.87340 KJ; FOR REACTION COORDINATE = 1.90000 ANGSTROMS
C               -0.3173     -1.2396      0.0000   -0.042157
H                0.7866     -1.2396      0.0000    0.116479
Br               0.4070      1.5899      0.0000   -0.950669
Cl              -0.7884     -3.0803      0.0000   -0.356610
H               -0.7674     -0.8418      0.9262    0.116478
H               -0.7674     -0.8418     -0.9262    0.116478
6
HEAT OF FORMATION = -46.01702 KCAL = -192.53520 KJ; FOR REACTION COORDINATE = 1.85000 ANGSTROMS
C               -0.3652     -1.2911      0.0000   -0.072619
H                0.7410     -1.2911      0.0000    0.116632
Br               0.4511      1.5947      0.0000   -0.964809
Cl              -0.8688     -3.0713      0.0000   -0.312466
H               -0.7954     -0.8565      0.9219    0.116631
H               -0.7954     -0.8565     -0.9219    0.116631
6
HEAT OF FORMATION = -46.83586 KCAL = -195.96125 KJ; FOR REACTION COORDINATE = 1.78125 ANGSTROMS
C               -0.4276     -1.3546      0.0000   -0.114372
H                0.6818     -1.3546      0.0000    0.116413
Br               0.5043      1.5975      0.0000   -0.977343
Cl              -0.9638     -3.0532      0.0000   -0.257524
H               -0.8315     -0.8769      0.9162    0.116413
H               -0.8315     -0.8769     -0.9162    0.116413
